[TITLE]
;;Project Title/Notes

[OPTIONS]
;;Option             Value
FLOW_UNITS           CFS
INFILTRATION         MODIFIED_GREEN_AMPT
FLOW_ROUTING         DYNWAVE
LINK_OFFSETS         DEPTH
MIN_SLOPE            0.01
ALLOW_PONDING        NO
SKIP_STEADY_STATE    NO

START_DATE           06/27/2023
START_TIME           02:27:00
REPORT_START_DATE    06/27/2023
REPORT_START_TIME    02:27:00
END_DATE             06/29/2023
END_TIME             13:27:00
SWEEP_START          01/01
SWEEP_END            12/31
DRY_DAYS             0
REPORT_STEP          00:05:00
WET_STEP             00:01:00
DRY_STEP             00:20:00
ROUTING_STEP         1
RULE_STEP            00:00:00

INERTIAL_DAMPING     NONE
NORMAL_FLOW_LIMITED  BOTH
FORCE_MAIN_EQUATION  H-W
SURCHARGE_METHOD     Slot
VARIABLE_STEP        0.75
LENGTHENING_STEP     0
MIN_SURFAREA         12.566
MAX_TRIALS           12
HEAD_TOLERANCE       0.005
SYS_FLOW_TOL         5
LAT_FLOW_TOL         5
MINIMUM_STEP         0.5
THREADS              1

[EVAPORATION]
;;Data Source    Parameters
;;-------------- ----------------
CONSTANT         0.0
DRY_ONLY         NO

[RAINGAGES]
;;Name           Format    Interval SCF      Source    
;;-------------- --------- -------- -------- ----------
Gage1            CUMULATIVE 0:01     0        TIMESERIES 6/27/23_fullstorm_x2depth

[SUBCATCHMENTS]
;;Name           Rain Gage        Outlet           Area     %Imperv  Width    %Slope   CurbLen  SnowPack        
;;-------------- ---------------- ---------------- -------- -------- -------- -------- -------- ----------------
S1               Gage1            J1-S             91.41    33.30    2532.81  6.27     0                        
S10              Gage1            J266-S           43.5     69.11    1719.16  5.3      0                        
S11              Gage1            J413-S           106.09   83.63    2358.92  4.36     0                        
S12              Gage1            J624-S           117.42   83.71    2473.75  4.85     0                        
S13              Gage1            J471-S           141.95   70.69    3727.03  5.8      0                        
S14              Gage1            J632-S           42.39    78.04    931.76   4.3      0                        
S15              Gage1            J329-S           9.01     78.28    1456.69  8.99     0                        
S16              Gage1            J361-S           119.58   78.15    2591.86  5.13     0                        
S17              Gage1            J338-S           45.5     82.17    2939.63  5.26     0                        
S18              Gage1            J460-S           52.08    55.27    2736.22  4.36     0                        
S19              Gage1            J433-S           82.54    68.12    2329.40  6.6      0                        
S2               Gage1            J268-S           99.82    51.65    3087.27  6.07     0                        
S20              Gage1            J253-S           2.8      82.59    406.82   1.96     0                        
S21              Gage1            J253-S           4.77     84.56    639.76   5.09     0                        
S22              Gage1            J659-S           128      80.36    3202.10  4.76     0                        
S23              Gage1            J421-S           1.74     87.83    406.82   3.03     0                        
S24              Gage1            J506-S           35.67    88.29    1309.06  3.27     0                        
S25              Gage1            J421-S           49.26    87.15    2765.75  3.05     0                        
S26              Gage1            J480-S           98.26    88.42    3989.50  3.8      0                        
S27              Gage1            J507-S           113.2    84.48    2185.04  3.8      0                        
S28              Gage1            J461-S           23.21    85.59    1309.06  3.78     0                        
S29              Gage1            J456-S           2.72     87.54    262.47   3.11     0                        
S3               Gage1            J273-S           37.26    67.04    1833.99  5.14     0                        
S30              Gage1            J456-S           1.61     88.95    291.99   3.09     0                        
S31              Gage1            J456-S           10.8     85.00    990.81   2.86     0                        
S32              Gage1            J619-S           68.78    83.63    2969.16  5.67     0                        
S33              Gage1            J592-S           0.96     78.90    262.47   2.72     0                        
S34              Gage1            J789-S           55.45    80.76    2155.51  3.21     0                        
S35              Gage1            J484-S           29.69    65.47    1427.17  4.52     0                        
S36              Gage1            J208-S           98.54    87.31    2270.34  4.68     0                        
S37              Gage1            J534-S           53.94    73.87    2998.69  4.55     0                        
S38              Gage1            J712-S           46.2     86.93    2706.69  4.53     0                        
S39              Gage1            J484-S           11.04    88.74    610.24   3.76     0                        
S4               Gage1            J260-S           12.07    57.44    1105.64  4.7      0                        
S40              Gage1            J756-S           129.1    84.14    1922.57  4.47     0                        
S41              Gage1            J49-S            28.53    78.52    1427.17  5.65     0                        
S42              Gage1            J492-S           34.13    86.69    1309.06  3.51     0                        
S43              Gage1            J714-S           66.9     83.52    1774.93  5.35     0                        
S44              Gage1            J587-S           60.68    78.48    1850.39  3.41     0                        
S45              Gage1            J509-S           59.33    33.84    3087.27  5.12     0                        
S46              Gage1            J138-S           12.6     85.63    495.41   4.03     0                        
S47              Gage1            J50-S            22.08    82.72    1630.58  2.79     0                        
S48              Gage1            J105-S           42.37    87.75    2125.98  4.68     0                        
S49              Gage1            J748-S           5.71     87.82    554.46   4.17     0                        
S5               Gage1            J571-S           103.39   66.44    4455.38  8.45     0                        
S50              Gage1            J141-S           44.66    85.64    2562.34  4.67     0                        
S51              Gage1            J749-S           31.76    87.29    1368.11  2.66     0                        
S52              Gage1            J509-S           35.64    22.42    1745.41  6.55     0                        
S53              Gage1            J204-S           31.26    84.64    1164.70  2.7      0                        
S54              Gage1            J733-S           28.34    76.54    1719.16  5.6      0                        
S55              Gage1            J675-S           59.38    77.13    2795.28  4.41     0                        
S56              Gage1            J782-S           1.18     21.59    226.00   1.42     0                        
S57              Gage1            J131-S           1.16     86.23    436.35   1.67     0                        
S58              Gage1            J60-S            44.56    84.53    1922.57  3.25     0                        
S59              Gage1            J131-S           0.82     79.25    206.69   4.53     0                        
S6               Gage1            J328-S           89.6     80.53    2358.92  5.04     0                        
S60              Gage1            J792-S           94.18    83.73    3300.52  4.07     0                        
S62              Gage1            J163-S           49.6     82.03    1833.99  3.69     0                        
S63              Gage1            J548-S           115.99   84.71    2706.69  4.31     0                        
S64              Gage1            J751-S           38.15    86.74    1512.47  2.38     0                        
S65              Gage1            J761-S           19.67    87.12    1279.53  1.78     0                        
S67              Gage1            J65              36.49    67.71    1955.38  8.58     0                        
S69              Gage1            J171-S           17.71    87.42    1046.59  4.62     0                        
S7               Gage1            J787-S           174.6    59.15    4570.21  5.44     0                        
S70              Gage1            J722-S           13.11    87.28    639.76   4.87     0                        
S71              Gage1            J732-S           1.3      87.71    262.47   1.95     0                        
S72              Gage1            J786             5.25     85.48    843.18   2.04     0                        
S73              Gage1            J798             3.83     89.25    872.70   5.46     0                        
S74              Gage1            Out126           2.82     84.09    639.76   3.21     0                        
S75              Gage1            J762-S           35.19    86.87    1755.25  3.99     0                        
S77              Gage1            J694-S           0.17     80.93    1076.12  6.76     0                        
S78              Gage1            J775             28.51    84.61    2125.98  2.44     0                        
S79              Gage1            J2               14.97    86.94    1171.26  4.99     0                        
S8               Gage1            J280-S           147.03   83.57    3435.04  5.11     0                        
S80              Gage1            J686-S           34.9     86.64    2755.91  3.35     0                        
S81              Gage1            J556-S           37.875   81.80    2201.44  4.32     0                        
S83              Gage1            J80-S            18.48    75.10    1571.52  7.51     0                        
S84              Gage1            J72-S            32.2     83.27    1922.57  3.84     0                        
S85              Gage1            J78-S            61.72    85.25    2096.46  5.67     0                        
S86              Gage1            J177-S           46.39    87.70    1833.99  4.23     0                        
S87              Gage1            J2               3.45     86.12    623.36   5.3      0                        
S88              Gage1            J90              16.65    86.22    1368.11  4.78     0                        
S89              Gage1            J231-S           0.48     83.81    629.92   1.98     0                        
S9               Gage1            J801-S           1.13     87.60    406.82   3.41     0                        
S90              Gage1            J42-S            65.65    80.81    2969.16  4.27     0                        
S91              Gage1            J234-S           66.03    83.25    1833.99  4.51     0                        
S92              Gage1            J541-S           25.45    88.71    1338.58  2.92     0                        
S93              Gage1            Out47            36.63    85.39    1830.71  4.49     0                        
S94              Gage1            J34-S            58.68    84.81    3303.81  5.06     0                        
S95              Gage1            J45-S            51.38    71.97    2562.34  3.29     0                        
S96              Gage1            J46-S            46.75    86.24    1833.99  2.87     0                        
S97              Gage1            J238-S           12.17    85.74    990.81   4.94     0                        

[SUBAREAS]
;;Subcatchment   N-Imperv   N-Perv     S-Imperv   S-Perv     PctZero    RouteTo    PctRouted 
;;-------------- ---------- ---------- ---------- ---------- ---------- ---------- ----------
S1               0.015      0.2        0.05       0.15       0          PERVIOUS   75        
S10              0.015      0.2        0.05       0.15       0          PERVIOUS   75        
S11              0.015      0.2        0.05       0.15       0          PERVIOUS   75        
S12              0.015      0.2        0.05       0.15       0          PERVIOUS   75        
S13              0.015      0.2        0.05       0.15       0          PERVIOUS   75        
S14              0.015      0.2        0.05       0.15       0          PERVIOUS   75        
S15              0.015      0.2        0.05       0.15       0          PERVIOUS   75        
S16              0.015      0.2        0.05       0.15       0          PERVIOUS   75        
S17              0.015      0.2        0.05       0.15       0          PERVIOUS   75        
S18              0.015      0.2        0.05       0.15       0          PERVIOUS   75        
S19              0.015      0.2        0.05       0.15       0          PERVIOUS   75        
S2               0.015      0.2        0.05       0.15       0          PERVIOUS   75        
S20              0.015      0.2        0.05       0.15       0          PERVIOUS   75        
S21              0.015      0.2        0.05       0.15       0          PERVIOUS   75        
S22              0.015      0.2        0.05       0.15       0          PERVIOUS   75        
S23              0.015      0.2        0.05       0.15       0          PERVIOUS   75        
S24              0.015      0.2        0.05       0.15       0          PERVIOUS   75        
S25              0.015      0.2        0.05       0.15       0          PERVIOUS   75        
S26              0.015      0.2        0.05       0.15       0          PERVIOUS   75        
S27              0.015      0.2        0.05       0.15       0          PERVIOUS   75        
S28              0.015      0.2        0.05       0.15       0          PERVIOUS   75        
S29              0.015      0.2        0.05       0.15       0          PERVIOUS   75        
S3               0.015      0.2        0.05       0.15       0          PERVIOUS   75        
S30              0.015      0.2        0.05       0.15       0          PERVIOUS   75        
S31              0.015      0.2        0.05       0.15       0          PERVIOUS   75        
S32              0.015      0.2        0.05       0.15       0          PERVIOUS   75        
S33              0.015      0.2        0.05       0.15       0          PERVIOUS   75        
S34              0.015      0.2        0.05       0.15       0          PERVIOUS   75        
S35              0.015      0.2        0.05       0.15       0          PERVIOUS   75        
S36              0.015      0.2        0.05       0.15       0          PERVIOUS   75        
S37              0.015      0.2        0.05       0.15       0          PERVIOUS   75        
S38              0.015      0.2        0.05       0.15       0          PERVIOUS   75        
S39              0.015      0.2        0.05       0.15       0          PERVIOUS   75        
S4               0.015      0.2        0.05       0.15       0          PERVIOUS   75        
S40              0.015      0.2        0.05       0.15       0          PERVIOUS   75        
S41              0.015      0.2        0.05       0.15       0          PERVIOUS   75        
S42              0.015      0.2        0.05       0.15       0          PERVIOUS   75        
S43              0.015      0.2        0.05       0.15       0          PERVIOUS   75        
S44              0.015      0.2        0.05       0.15       0          PERVIOUS   75        
S45              0.015      0.2        0.05       0.15       0          PERVIOUS   75        
S46              0.015      0.2        0.05       0.15       0          PERVIOUS   75        
S47              0.015      0.2        0.05       0.15       0          PERVIOUS   75        
S48              0.015      0.2        0.05       0.15       0          PERVIOUS   75        
S49              0.015      0.2        0.05       0.15       0          PERVIOUS   75        
S5               0.015      0.2        0.05       0.15       0          PERVIOUS   75        
S50              0.015      0.2        0.05       0.15       0          PERVIOUS   75        
S51              0.015      0.2        0.05       0.15       0          PERVIOUS   75        
S52              0.015      0.2        0.05       0.15       0          PERVIOUS   75        
S53              0.015      0.2        0.05       0.15       0          PERVIOUS   75        
S54              0.015      0.2        0.05       0.15       0          PERVIOUS   75        
S55              0.015      0.2        0.05       0.15       0          PERVIOUS   75        
S56              0.015      0.2        0.05       0.15       0          PERVIOUS   75        
S57              0.015      0.2        0.05       0.15       0          PERVIOUS   75        
S58              0.015      0.2        0.05       0.15       0          PERVIOUS   75        
S59              0.015      0.2        0.05       0.15       0          PERVIOUS   75        
S6               0.015      0.2        0.05       0.15       0          PERVIOUS   75        
S60              0.015      0.2        0.05       0.15       0          PERVIOUS   75        
S62              0.015      0.2        0.05       0.15       0          PERVIOUS   75        
S63              0.015      0.2        0.05       0.15       0          PERVIOUS   75        
S64              0.015      0.2        0.05       0.15       0          PERVIOUS   75        
S65              0.015      0.2        0.05       0.15       0          PERVIOUS   75        
S67              0.015      0.2        0.05       0.15       0          PERVIOUS   75        
S69              0.015      0.2        0.05       0.15       0          PERVIOUS   75        
S7               0.015      0.2        0.05       0.15       0          PERVIOUS   75        
S70              0.015      0.2        0.05       0.15       0          PERVIOUS   75        
S71              0.015      0.2        0.05       0.15       0          PERVIOUS   75        
S72              0.015      0.2        0.05       0.15       0          PERVIOUS   75        
S73              0.015      0.2        0.05       0.15       0          PERVIOUS   75        
S74              0.015      0.2        0.05       0.15       0          PERVIOUS   75        
S75              0.015      0.2        0.05       0.15       0          PERVIOUS   75        
S77              0.015      0.2        0.05       0.15       0          PERVIOUS   75        
S78              0.015      0.2        0.05       0.15       0          PERVIOUS   75        
S79              0.015      0.2        0.05       0.15       0          PERVIOUS   75        
S8               0.015      0.2        0.05       0.15       0          PERVIOUS   75        
S80              0.015      0.2        0.05       0.15       0          PERVIOUS   75        
S81              0.015      0.2        0.05       0.15       0          PERVIOUS   75        
S83              0.015      0.2        0.05       0.15       0          PERVIOUS   75        
S84              0.015      0.2        0.05       0.15       0          PERVIOUS   75        
S85              0.015      0.2        0.05       0.15       0          PERVIOUS   75        
S86              0.015      0.2        0.05       0.15       0          PERVIOUS   75        
S87              0.015      0.2        0.05       0.15       0          PERVIOUS   75        
S88              0.015      0.2        0.05       0.15       0          PERVIOUS   75        
S89              0.015      0.2        0.05       0.15       0          PERVIOUS   75        
S9               0.015      0.2        0.05       0.15       0          PERVIOUS   75        
S90              0.015      0.2        0.05       0.15       0          PERVIOUS   75        
S91              0.015      0.2        0.05       0.15       0          PERVIOUS   75        
S92              0.015      0.2        0.05       0.15       0          PERVIOUS   75        
S93              0.015      0.2        0.05       0.15       0          PERVIOUS   75        
S94              0.015      0.2        0.05       0.15       0          PERVIOUS   75        
S95              0.015      0.2        0.05       0.15       0          PERVIOUS   75        
S96              0.015      0.2        0.05       0.15       0          PERVIOUS   75        
S97              0.015      0.2        0.05       0.15       0          PERVIOUS   75        

[INFILTRATION]
;;Subcatchment   Param1     Param2     Param3     Param4     Param5    
;;-------------- ---------- ---------- ---------- ---------- ----------
S1               2.673228346 0.311811024 0.33     0          0         
S10              9.409448819 0.023622047 0.21     0          0         
S11              9.409448819 0.023622047 0.21     0          0         
S12              9.409448819 0.023622047 0.21     0          0         
S13              6          3.25984252 0.33       0          0         
S14              9.409448819 0.023622047 0.21     0          0         
S15              9.409448819 0.023622047 0.21     0          0         
S16              9.409448819 0.023622047 0.21     0          0         
S17              9.409448819 0.023622047 0.21     0          0         
S18              9.409448819 0.023622047 0.21     0          0         
S19              2.673228346 0.311811024 0.33     0          0         
S2               6          3.288188976 0.33      0          0         
S20              9.409448819 0.023622047 0.21     0          0         
S21              9.409448819 0.023622047 0.21     0          0         
S22              9.409448819 0.023622047 0.21     0          0         
S23              9.409448819 0.023622047 0.21     0          0         
S24              9.409448819 0.023622047 0.21     0          0         
S25              9.409448819 0.023622047 0.21     0          0         
S26              9.409448819 0.023622047 0.21     0          0         
S27              9.409448819 0.023622047 0.21     0          0         
S28              9.409448819 0.023622047 0.21     0          0         
S29              9.409448819 0.023622047 0.21     0          0         
S3               6          3.25984252 0.33       0          0         
S30              9.409448819 0.023622047 0.21     0          0         
S31              9.409448819 0.023622047 0.21     0          0         
S32              9.409448819 0.023622047 0.21     0          0         
S33              9.409448819 0.023622047 0.21     0          0         
S34              9.409448819 0.023622047 0.21     0          0         
S35              9.409448819 0.023622047 0.21     0          0         
S36              9.409448819 0.023622047 0.21     0          0         
S37              9.409448819 0.023622047 0.21     0          0         
S38              9.409448819 0.023622047 0.21     0          0         
S39              9.409448819 0.023622047 0.21     0          0         
S4               9.409448819 0.023622047 0.21     0          0         
S40              9.409448819 0.023622047 0.21     0          0         
S41              9.409448819 0.023622047 0.21     0          0         
S42              9.409448819 0.023622047 0.21     0          0         
S43              9.409448819 0.023622047 0.21     0          0         
S44              9.409448819 0.023622047 0.21     0          0         
S45              2.673228346 1.275590551 0.33     0          0         
S46              9.409448819 0.023622047 0.21     0          0         
S47              9.409448819 0.023622047 0.21     0          0         
S48              9.409448819 0.023622047 0.21     0          0         
S49              9.409448819 0.023622047 0.21     0          0         
S5               6          3.25984252 0.33       0          0         
S50              9.409448819 0.023622047 0.21     0          0         
S51              9.409448819 0.023622047 0.21     0          0         
S52              6          1.275590551 0.33      0          0         
S53              9.409448819 0.023622047 0.21     0          0         
S54              9.409448819 0.023622047 0.21     0          0         
S55              9.409448819 0.023622047 0.21     0          0         
S56              9.409448819 0.023622047 0.21     0          0         
S57              9.409448819 0.023622047 0.21     0          0         
S58              9.409448819 0.023622047 0.21     0          0         
S59              9.409448819 0.023622047 0.21     0          0         
S6               9.409448819 0.023622047 0.21     0          0         
S60              9.409448819 0.023622047 0.21     0          0         
S62              9.409448819 0.023622047 0.21     0          0         
S63              9.409448819 0.023622047 0.21     0          0         
S64              9.409448819 0.023622047 0.21     0          0         
S65              9.409448819 0.023622047 0.21     0          0         
S67              2.673228346 0.311811024 0.33     0          0         
S69              9.409448819 0.023622047 0.21     0          0         
S7               2.673228346 1.275590551 0.33     0          0         
S70              9.409448819 0.023622047 0.21     0          0         
S71              9.409448819 0.023622047 0.21     0          0         
S72              9.409448819 0.023622047 0.21     0          0         
S73              9.409448819 0.023622047 0.21     0          0         
S74              9.409448819 0.023622047 0.21     0          0         
S75              9.409448819 0.023622047 0.21     0          0         
S77              9.409448819 0.023622047 0.21     0          0         
S78              9.409448819 0.023622047 0.21     0          0         
S79              9.409448819 0.023622047 0.21     0          0         
S8               9.409448819 0.023622047 0.21     0          0         
S80              9.409448819 0.023622047 0.21     0          0         
S81              9.409448819 0.023622047 0.21     0          0         
S83              9.409448819 0.023622047 0.21     0          0         
S84              9.409448819 0.023622047 0.21     0          0         
S85              9.409448819 0.023622047 0.21     0          0         
S86              9.409448819 0.023622047 0.21     0          0         
S87              9.409448819 0.023622047 0.21     0          0         
S88              9.409448819 0.023622047 0.21     0          0         
S89              9.409448819 0.023622047 0.21     0          0         
S9               9.409448819 0.023622047 0.21     0          0         
S90              9.409448819 0.023622047 0.21     0          0         
S91              9.409448819 0.023622047 0.21     0          0         
S92              9.409448819 0.023622047 0.21     0          0         
S93              6          3.25984252 0.33       0          0         
S94              9.409448819 0.023622047 0.21     0          0         
S95              6          3.25984252 0.33       0          0         
S96              9.409448819 0.023622047 0.21     0          0         
S97              9.409448819 0.023622047 0.21     0          0         

[LID_CONTROLS]
;;Name           Type/Layer Parameters
;;-------------- ---------- ----------
BioRetention     BC
BioRetention     SURFACE    5          0.0        0          0          5         
BioRetention     SOIL       18         0.5        0.2        0.1        0.5        10.0       9         
BioRetention     STORAGE    6          0.6        0.5        0          NO        
BioRetention     DRAIN      0          0.5        6          6          0          0                    

GreenRoof        GR
GreenRoof        SURFACE    1          0.0        0.1        30         5         
GreenRoof        SOIL       4.5        0.5        0.2        0.1        0.5        10.0       9         
GreenRoof        DRAINMAT   1          0.5        0.1       

InfilTrench      IT
InfilTrench      SURFACE    5          0.0        0.0        0.0        5         
InfilTrench      STORAGE    18         0.6        0.5        0          NO        
InfilTrench      DRAIN      0          0.5        6          6          0          0                    

PermPave         PP
PermPave         SURFACE    0          0.0        0.1        0          5         
PermPave         PAVEMENT   5          0.16       0.3        75         75         0          0         
PermPave         SOIL       18         0.5        0.2        0.1        0.5        10.0       9         
PermPave         STORAGE    6          0.6        0.5        0          NO        
PermPave         DRAIN      0          0.5        6          6          0          0                    

RainBarrel       RB
RainBarrel       STORAGE    36         0.75       0.5        0          NO        
RainBarrel       DRAIN      0          0.5        6          6          0          0                    

RainGarden       RG
RainGarden       SURFACE    5          0.0        0.1        0          5         
RainGarden       SOIL       18         0.5        0.2        0.1        0.5        10.0       9         